! PBE def2-TZVP RIJCOSX def2/J TightSCF CPCM(Water)

%pal 
  nprocs 20
end

%scf
  MaxIter   1000
end

%output
  XYZFile true
end

%TDDFT
   NROOTS   5
end

* xyz 0 1
  C          -0.02820094457066     -1.86458052949821      0.00313880553330
  C           0.03608384002309     -1.12429333093336      1.18563004253782
  C           0.10234808222949      0.26670103812094      1.12255280164908
  C           0.10593422658433      0.94569393826307     -0.10960220396164
  C           0.04093348113274      0.18887178986998     -1.28782188401998
  C          -0.02547122291563     -1.20267510055144     -1.22963761243888
  H          -0.08027234730821     -2.95288359017076      0.05007772990019
  H           0.03533502878072     -1.61781488508576      2.15820526747317
  H           0.04368488773390      0.71596602658619     -2.24363318360484
  H          -0.07553605410830     -1.77421741960631     -2.15789946395471
  O           0.16956155168218      2.30035543485021     -0.20618997702223
  H           0.20908408686367      2.67578222149621      0.69921784011598
  Cl          0.18426861387267      1.21990879665926      2.58776139779274
*

