%chk=C:\G16W\Scratch\CH2FCl-sto3g.chk
# HF/STO-3G Opt SCF=Tight

CH2FCl-sto3g

0 1
 C                 -4.57845447    3.12646365    0.00000000
 H                 -4.22180004    2.11765365    0.00000000
 H                 -4.22178163    3.63086184   -0.87365150
 F                 -4.12844668    3.76285389    1.10227059
 Cl                -6.33845447    3.12648534    0.00000000

 1 2 1.0 3 1.0 4 1.0 5 1.0
 2
 3
 4
 5

