%chk=C:\G16W\Scratch\CFH2OH.chk
%mem=8GB
%nprocshared=20
#p B3LYP/cc-pVTZ Opt Freq SCF=Tight Integral=UltraFine NoSymm

CFH2OH optimization

0 1
 C                 -1.28942770   -0.29832444   -0.87365150
 H                 -0.93275486    0.20607375    0.00000000
 H                 -0.93275486    0.20607375   -1.74730301
 F                 -0.83944314   -1.57112211   -0.87365150
 O                 -2.71942770   -0.29830682   -0.87365150
 H                 -3.03989017    0.60662451   -0.87189400

 1 2 1.0 3 1.0 4 1.0 5 1.0
 2
 3
 4
 5 6 1.0
 6

