13
Coordinates from ORCA-job C:\orca_jobs\ex1\B3LYP(water) E -766.970846793429
  C       0.022963     -1.859970      0.000000
  C       0.007981     -1.162440      1.208163
  C      -0.023315      0.231921      1.208246
  C      -0.038443      0.929419      0.000000
  C      -0.023315      0.231921     -1.208246
  C       0.007981     -1.162440     -1.208163
  H       0.047187     -2.959313      0.000000
  H       0.019539     -1.712379      2.160358
  H      -0.035759      0.781776     -2.160506
  H       0.019539     -1.712379     -2.160358
  O      -0.070453      2.359061      0.000000
  H       0.827081      2.699692      0.000000
  Cl     -0.043232      1.111946      2.732306
13
Coordinates from ORCA-job C:\orca_jobs\ex1\B3LYP(water) E -766.973438480180
  C       0.020544     -1.854731      0.000811
  C       0.006310     -1.160994      1.205936
  C      -0.013972      0.229450      1.202060
  C      -0.017018      0.929533     -0.003242
  C      -0.010446      0.233260     -1.205426
  C       0.008791     -1.157985     -1.204837
  H       0.037153     -2.937277      0.003546
  H       0.012073     -1.698423      2.145559
  H      -0.024882      0.781100     -2.139251
  H       0.015281     -1.697740     -2.143619
  O      -0.091925      2.324116     -0.010736
  H       0.804764      2.686462      0.000574
  Cl     -0.028919      1.100045      2.720426
13
Coordinates from ORCA-job C:\orca_jobs\ex1\B3LYP(water) E -766.973732764129
  C       0.017111     -1.854179      0.001007
  C       0.005778     -1.160033      1.204918
  C      -0.011735      0.229801      1.197533
  C      -0.015640      0.934344     -0.007183
  C      -0.007699      0.231893     -1.206214
  C       0.010001     -1.158772     -1.204472
  H       0.030607     -2.935285      0.007216
  H       0.011797     -1.692288      2.145494
  H      -0.019930      0.782924     -2.136525
  H       0.017131     -1.697375     -2.142224
  O      -0.097826      2.312347     -0.020000
  H       0.794558      2.686303      0.019111
  Cl     -0.016400      1.097134      2.713138
13
Coordinates from ORCA-job C:\orca_jobs\ex1\B3LYP(water) E -766.973914630041
  C       0.015143     -1.856100      0.000674
  C       0.006893     -1.158918      1.202871
  C      -0.008419      0.230923      1.190977
  C      -0.014026      0.938339     -0.014383
  C      -0.006559      0.226847     -1.210155
  C       0.008544     -1.163461     -1.205890
  H       0.025670     -2.937734      0.011522
  H       0.013282     -1.686015      2.146753
  H      -0.017602      0.780304     -2.139863
  H       0.014785     -1.703137     -2.143578
  O      -0.098107      2.309269     -0.033118
  H       0.784620      2.696143      0.061690
  Cl     -0.006470      1.100353      2.704301
13
Coordinates from ORCA-job C:\orca_jobs\ex1\B3LYP(water) E -766.974139942433
  C       0.003115     -1.866207     -0.001134
  C       0.012821     -1.155629      1.193744
  C       0.011029      0.233815      1.162415
  C       0.001699      0.954710     -0.045169
  C       0.005075      0.203603     -1.226004
  C       0.000437     -1.184620     -1.212066
  H      -0.003723     -2.949931      0.030101
  H       0.019208     -1.659151      2.152398
  H       0.003427      0.770054     -2.151950
  H       0.000235     -1.727660     -2.150321
  O      -0.083861      2.297541     -0.091995
  H       0.705870      2.744817      0.245086
  Cl      0.042420      1.115472      2.666692
13
Coordinates from ORCA-job C:\orca_jobs\ex1\B3LYP(water) E -766.975017024023
  C      -0.000409     -1.866739     -0.000957
  C       0.015787     -1.149888      1.190176
  C       0.020450      0.239230      1.151676
  C       0.011504      0.954317     -0.059424
  C       0.008095      0.196866     -1.236474
  C      -0.003029     -1.191082     -1.215343
  H      -0.012372     -2.950200      0.036160
  H       0.022395     -1.647845      2.151705
  H       0.007104      0.759354     -2.164950
  H      -0.008189     -1.738520     -2.151015
  O      -0.067124      2.297014     -0.114737
  H       0.664806      2.744928      0.333364
  Cl      0.058736      1.129379      2.651619
13
Coordinates from ORCA-job C:\orca_jobs\ex1\B3LYP(water) E -766.976112350269
  C      -0.008626     -1.867940     -0.000785
  C       0.019824     -1.143844      1.185786
  C       0.035869      0.244652      1.137988
  C       0.029010      0.956175     -0.076742
  C       0.017489      0.188256     -1.248150
  C      -0.008497     -1.198884     -1.218700
  H      -0.031213     -2.951131      0.044282
  H       0.025767     -1.633517      2.151733
  H       0.021945      0.748551     -2.178420
  H      -0.020640     -1.750592     -2.152008
  O      -0.037059      2.292888     -0.146503
  H       0.583141      2.747534      0.441419
  Cl      0.090744      1.144666      2.631899
13
Coordinates from ORCA-job C:\orca_jobs\ex1\B3LYP(water) E -766.977189298671
  C      -0.013124     -1.867175     -0.000203
  C       0.022266     -1.138993      1.183634
  C       0.045630      0.249093      1.131351
  C       0.040119      0.955122     -0.086111
  C       0.021989      0.185153     -1.255707
  C      -0.011871     -1.201588     -1.220350
  H      -0.041159     -2.949929      0.047955
  H       0.028039     -1.625829      2.150928
  H       0.029173      0.740788     -2.188562
  H      -0.028705     -1.756420     -2.151585
  O      -0.009817      2.291218     -0.165462
  H       0.526779      2.739175      0.504301
  Cl      0.108434      1.156199      2.621609
13
Coordinates from ORCA-job C:\orca_jobs\ex1\B3LYP(water) E -766.978521068208
  C      -0.009982     -1.859972      0.002438
  C       0.024181     -1.129194      1.184340
  C       0.044701      0.258768      1.135085
  C       0.038952      0.936874     -0.086955
  C       0.017966      0.193240     -1.264952
  C      -0.012829     -1.194467     -1.220877
  H      -0.033878     -2.940976      0.042454
  H       0.031414     -1.627183      2.144620
  H       0.021192      0.725073     -2.208162
  H      -0.031425     -1.755719     -2.146268
  O      -0.000398      2.298396     -0.172416
  H       0.526456      2.689096      0.540231
  Cl      0.101404      1.182879      2.622261
13
Coordinates from ORCA-job C:\orca_jobs\ex1\B3LYP(water) E -766.978971574829
  C      -0.012351     -1.860483      0.002409
  C       0.026046     -1.128735      1.183680
  C       0.050464      0.258954      1.132767
  C       0.047162      0.937613     -0.089881
  C       0.021199      0.191520     -1.266903
  C      -0.015303     -1.195982     -1.221282
  H      -0.039289     -2.941521      0.043464
  H       0.032664     -1.625560      2.144802
  H       0.025636      0.722737     -2.210519
  H      -0.037622     -1.758073     -2.146358
  O       0.017086      2.297139     -0.181557
  H       0.493350      2.693752      0.562823
  Cl      0.108712      1.185455      2.618354
13
Coordinates from ORCA-job C:\orca_jobs\ex1\B3LYP(water) E -766.979384252552
  C      -0.014608     -1.860294      0.002548
  C       0.027458     -1.127298      1.182923
  C       0.056138      0.260107      1.130340
  C       0.054653      0.937398     -0.092847
  C       0.024022      0.190348     -1.269403
  C      -0.017256     -1.196868     -1.221842
  H      -0.044278     -2.941206      0.044391
  H       0.033587     -1.623302      2.144444
  H       0.029374      0.719806     -2.213987
  H      -0.043031     -1.760063     -2.146137
  O       0.035010      2.295425     -0.188642
  H       0.459912      2.692520      0.586001
  Cl      0.116772      1.190241      2.614012
13
Coordinates from ORCA-job C:\orca_jobs\ex1\B3LYP(water) E -766.979939539185
  C      -0.018516     -1.859989      0.002847
  C       0.028791     -1.125346      1.181876
  C       0.065070      0.261661      1.126751
  C       0.065692      0.937452     -0.097100
  C       0.028687      0.188707     -1.272980
  C      -0.019344     -1.197992     -1.222605
  H      -0.052881     -2.940690      0.045876
  H       0.033806     -1.620114      2.144074
  H       0.035498      0.715712     -2.218900
  H      -0.049839     -1.762732     -2.145840
  O       0.062066      2.293275     -0.196924
  H       0.406459      2.690128      0.617059
  Cl      0.132264      1.196743      2.607666
13
Coordinates from ORCA-job C:\orca_jobs\ex1\B3LYP(water) E -766.980574083062
  C      -0.025376     -1.859409      0.003393
  C       0.029817     -1.122907      1.180656
  C       0.080266      0.263441      1.122284
  C       0.082697      0.937490     -0.102321
  C       0.037030      0.186860     -1.277341
  C      -0.020950     -1.198922     -1.223357
  H      -0.068935     -2.939638      0.047905
  H       0.031802     -1.615890      2.143754
  H       0.046207      0.710909     -2.224875
  H      -0.057789     -1.765252     -2.145360
  O       0.102065      2.290544     -0.205557
  H       0.319000      2.685458      0.652604
  Cl      0.161918      1.204132      2.600015
13
Coordinates from ORCA-job C:\orca_jobs\ex1\B3LYP(water) E -766.980897699124
  C      -0.031268     -1.859659      0.003732
  C       0.033380     -1.123466      1.180542
  C       0.102218      0.261806      1.120259
  C       0.108931      0.938623     -0.104073
  C       0.045462      0.185863     -1.278582
  C      -0.024435     -1.198937     -1.223009
  H      -0.085768     -2.939534      0.047897
  H       0.030234     -1.615925      2.144163
  H       0.052816      0.708380     -2.227016
  H      -0.073677     -1.765555     -2.144634
  O       0.174854      2.286229     -0.212209
  H       0.199468      2.692660      0.668537
  Cl      0.185538      1.206328      2.596193
13
Coordinates from ORCA-job C:\orca_jobs\ex1\B3LYP(water) E -766.980911695026
  C      -0.030374     -1.858985      0.003853
  C       0.032845     -1.121519      1.179938
  C       0.101512      0.263836      1.119054
  C       0.106999      0.937153     -0.105800
  C       0.044522      0.185731     -1.279994
  C      -0.023479     -1.199269     -1.223552
  H      -0.084855     -2.938627      0.049050
  H       0.029514     -1.613145      2.143676
  H       0.050808      0.707549     -2.228736
  H      -0.071610     -1.766315     -2.144598
  O       0.169195      2.288241     -0.210388
  H       0.208711      2.684170      0.674134
  Cl      0.183964      1.207994      2.595161
13
Coordinates from ORCA-job C:\orca_jobs\ex1\B3LYP(water) E -766.980914518139
  C      -0.029143     -1.859326      0.003644
  C       0.033069     -1.122027      1.180028
  C       0.099990      0.263405      1.119146
  C       0.106051      0.937516     -0.105735
  C       0.043000      0.185454     -1.279554
  C      -0.023896     -1.199754     -1.223621
  H      -0.081683     -2.939175      0.048943
  H       0.030046     -1.613545      2.143950
  H       0.047968      0.708043     -2.227970
  H      -0.072190     -1.766720     -2.144844
  O       0.170054      2.288576     -0.210181
  H       0.216328      2.687484      0.672575
  Cl      0.178158      1.206883      2.595419
13
Coordinates from ORCA-job C:\orca_jobs\ex1\B3LYP(water) E -766.980917653913
  C      -0.029375     -1.859252      0.003632
  C       0.033141     -1.121923      1.180012
  C       0.100324      0.263510      1.119098
  C       0.106788      0.937416     -0.105934
  C       0.043466      0.185410     -1.279615
  C      -0.024059     -1.199768     -1.223666
  H      -0.082090     -2.939093      0.049106
  H       0.030080     -1.613272      2.144014
  H       0.048415      0.708210     -2.227954
  H      -0.072669     -1.766638     -2.144908
  O       0.171275      2.288355     -0.210273
  H       0.213488      2.687099      0.672760
  Cl      0.178970      1.206761      2.595527
13
Coordinates from ORCA-job C:\orca_jobs\ex1\B3LYP(water) E -766.980914658550
  C      -0.029450     -1.859210      0.003602
  C       0.033156     -1.121858      1.179995
  C       0.100438      0.263582      1.119089
  C       0.106940      0.937330     -0.106071
  C       0.043565      0.185363     -1.279646
  C      -0.024050     -1.199841     -1.223718
  H      -0.082177     -2.939042      0.049249
  H       0.030085     -1.613077      2.144050
  H       0.048471      0.708378     -2.227874
  H      -0.072776     -1.766635     -2.144988
  O       0.171590      2.288294     -0.210317
  H       0.212835      2.686921      0.672809
  Cl      0.179126      1.206612      2.595619
