13
Coordinates from ORCA-job C:\orca_jobs\ex1\B3LYP(water) E -766.980914658550
  C          -0.02944983368378     -1.85921037165536      0.00360216718185
  C           0.03315596024693     -1.12185825794863      1.17999507942510
  C           0.10043785932372      0.26358159655638      1.11908854459987
  C           0.10693973908754      0.93732968397298     -0.10607138917940
  C           0.04356479632666      0.18536269635920     -1.27964600413135
  C          -0.02404962902780     -1.19984142264626     -1.22371817362163
  H          -0.08217745604446     -2.93904228877050      0.04924876427089
  H           0.03008514234885     -1.61307713243223      2.14405037351148
  H           0.04847101544400      0.70837755776624     -2.22787372773601
  H          -0.07277603485231     -1.76663530412321     -2.14498772151101
  O           0.17159041483246      2.28829446176539     -0.21031673685147
  H           0.21283491774628      2.68692117778965      0.67280920692612
  Cl          0.17912633825192      1.20661199336635      2.59561917711557
